Version 4
SHEET 1 880 680
SYMBOL OpAmps\\LTC6268 208 128 R0
SYMATTR InstName U1
